<?xml version="1.0" encoding="UTF-8"?>
<routes xmlns:xsi="http://www.w3.org/2001/XMLSchema-instance"
        xsi:noNamespaceSchemaLocation="http://sumo.dlr.de/xsd/routes_file.xsd">
    <vType id="passenger" accel="2.6" decel="4.5" sigma="0.5" length="5.0" maxSpeed="60"/>
    <vType id="bus" accel="1.5" decel="3.5" sigma="0.5" length="12.0" maxSpeed="40"/>
    <vType id="truck" accel="1.0" decel="3.0" sigma="0.5" length="10.0" maxSpeed="30"/>
    <flow id="sim_ns" begin="0" end="3600" from="bottom0A0" to="bottom1B0" number="2160" type="passenger"/>
    <flow id="sim_sn" begin="0" end="3600" from="bottom1B0" to="bottom0A0" number="1980" type="passenger"/>
</routes>