<?xml version="1.0" encoding="UTF-8"?>
<routes xmlns:xsi="http://www.w3.org/2001/XMLSchema-instance"
        xsi:noNamespaceSchemaLocation="http://sumo.dlr.de/xsd/routes_file.xsd">
    <vType id="passenger" accel="2.6" decel="4.5" sigma="0.5" length="5.0" maxSpeed="60"/>
    <vType id="bus" accel="1.5" decel="3.5" sigma="0.5" length="12.0" maxSpeed="40"/>
    <vType id="truck" accel="1.0" decel="3.0" sigma="0.5" length="10.0" maxSpeed="30"/>
    <flow id="ns" begin="0" end="3600" from="vn_2_0_1" to="vn_2_5_6" number="2400" type="passenger"/>
    <flow id="sn" begin="0" end="3600" from="vs_2_1_0" to="vs_2_6_5" number="2200" type="passenger"/>
    <flow id="we" begin="0" end="3600" from="he_3_0_1" to="he_3_3_4" number="2600" type="passenger"/>
    <flow id="ew" begin="0" end="3600" from="hw_3_1_0" to="hw_3_4_3" number="2400" type="passenger"/>
</routes>