<?xml version="1.0" encoding="UTF-8"?>

<!-- generated on 2026-07-02 15:17:52 by Eclipse SUMO netgenerate Version 1.24.0
<netgenerateConfiguration xmlns:xsi="http://www.w3.org/2001/XMLSchema-instance" xsi:noNamespaceSchemaLocation="http://sumo.dlr.de/xsd/netgenerateConfiguration.xsd">

    <grid_network>
        <grid value="true"/>
        <grid.number value="6"/>
        <grid.length value="300"/>
        <grid.y-number value="4"/>
        <grid.y-length value="400"/>
        <grid.attach-length value="200"/>
    </grid_network>

    <output>
        <output-file value="C:\Users\24924\Desktop\智能运输系统设计与集成综合实验\algorithm\sumo\city_network.net.xml"/>
    </output>

    <building_defaults>
        <default.lanenumber value="3"/>
        <default.speed value="13.89"/>
    </building_defaults>

</netgenerateConfiguration>
-->

<net version="1.20" junctionCornerDetail="5" limitTurnSpeed="5.50" xmlns:xsi="http://www.w3.org/2001/XMLSchema-instance" xsi:noNamespaceSchemaLocation="http://sumo.dlr.de/xsd/net_file.xsd">

    <location netOffset="0.00,0.00" convBoundary="0.00,0.00,1900.00,1600.00" origBoundary="0.00,0.00,1900.00,1600.00" projParameter="!"/>

    <edge id=":A0_0" function="internal">
        <lane id=":A0_0_0" index="0" speed="6.51" length="9.03" shape="192.00,213.60 191.65,211.15 190.60,209.40 188.85,208.35 186.40,208.00"/>
    </edge>
    <edge id=":A0_1" function="internal">
        <lane id=":A0_1_0" index="0" speed="13.89" length="27.20" shape="192.00,213.60 192.00,186.40"/>
        <lane id=":A0_1_1" index="1" speed="13.89" length="27.20" shape="195.20,213.60 195.20,186.40"/>
        <lane id=":A0_1_2" index="2" speed="13.89" length="27.20" shape="198.40,213.60 198.40,186.40"/>
    </edge>
    <edge id=":A0_4" function="internal">
        <lane id=":A0_4_0" index="0" speed="10.36" length="5.01" shape="198.40,213.60 199.11,208.64"/>
    </edge>
    <edge id=":A0_5" function="internal">
        <lane id=":A0_5_0" index="0" speed="3.65" length="1.44" shape="198.40,213.60 199.20,212.40"/>
    </edge>
    <edge id=":A0_24" function="internal">
        <lane id=":A0_24_0" index="0" speed="10.36" length="19.50" shape="199.11,208.64 199.35,206.95 202.20,202.20 206.95,199.35 213.60,198.40"/>
    </edge>
    <edge id=":A0_25" function="internal">
        <lane id=":A0_25_0" index="0" speed="3.65" length="3.23" shape="199.20,212.40 200.00,212.00 200.80,212.40 201.60,213.60"/>
    </edge>
    <edge id=":A0_6" function="internal">
        <lane id=":A0_6_0" index="0" speed="6.51" length="9.03" shape="213.60,208.00 211.15,208.35 209.40,209.40 208.35,211.15 208.00,213.60"/>
    </edge>
    <edge id=":A0_7" function="internal">
        <lane id=":A0_7_0" index="0" speed="13.89" length="27.20" shape="213.60,208.00 186.40,208.00"/>
        <lane id=":A0_7_1" index="1" speed="13.89" length="27.20" shape="213.60,204.80 186.40,204.80"/>
        <lane id=":A0_7_2" index="2" speed="13.89" length="27.20" shape="213.60,201.60 186.40,201.60"/>
    </edge>
    <edge id=":A0_10" function="internal">
        <lane id=":A0_10_0" index="0" speed="10.36" length="24.51" shape="213.60,201.60 206.95,200.65 202.20,197.80 199.35,193.05 198.40,186.40"/>
    </edge>
    <edge id=":A0_11" function="internal">
        <lane id=":A0_11_0" index="0" speed="3.65" length="4.67" shape="213.60,201.60 212.40,200.80 212.00,200.00 212.40,199.20 213.60,198.40"/>
    </edge>
    <edge id=":A0_12" function="internal">
        <lane id=":A0_12_0" index="0" speed="6.51" length="9.03" shape="208.00,186.40 208.35,188.85 209.40,190.60 211.15,191.65 213.60,192.00"/>
    </edge>
    <edge id=":A0_13" function="internal">
        <lane id=":A0_13_0" index="0" speed="13.89" length="27.20" shape="208.00,186.40 208.00,213.60"/>
        <lane id=":A0_13_1" index="1" speed="13.89" length="27.20" shape="204.80,186.40 204.80,213.60"/>
        <lane id=":A0_13_2" index="2" speed="13.89" length="27.20" shape="201.60,186.40 201.60,213.60"/>
    </edge>
    <edge id=":A0_16" function="internal">
        <lane id=":A0_16_0" index="0" speed="10.36" length="5.01" shape="201.60,186.40 200.89,191.36"/>
    </edge>
    <edge id=":A0_17" function="internal">
        <lane id=":A0_17_0" index="0" speed="3.65" length="1.44" shape="201.60,186.40 200.80,187.60"/>
    </edge>
    <edge id=":A0_26" function="internal">
        <lane id=":A0_26_0" index="0" speed="10.36" length="19.50" shape="200.89,191.36 200.65,193.05 197.80,197.80 193.05,200.65 186.40,201.60"/>
    </edge>
    <edge id=":A0_27" function="internal">
        <lane id=":A0_27_0" index="0" speed="3.65" length="3.23" shape="200.80,187.60 200.00,188.00 199.20,187.60 198.40,186.40"/>
    </edge>
    <edge id=":A0_18" function="internal">
        <lane id=":A0_18_0" index="0" speed="6.51" length="9.03" shape="186.40,192.00 188.85,191.65 190.60,190.60 191.65,188.85 192.00,186.40"/>
    </edge>
    <edge id=":A0_19" function="internal">
        <lane id=":A0_19_0" index="0" speed="13.89" length="27.20" shape="186.40,192.00 213.60,192.00"/>
        <lane id=":A0_19_1" index="1" speed="13.89" length="27.20" shape="186.40,195.20 213.60,195.20"/>
        <lane id=":A0_19_2" index="2" speed="13.89" length="27.20" shape="186.40,198.40 213.60,198.40"/>
    </edge>
    <edge id=":A0_22" function="internal">
        <lane id=":A0_22_0" index="0" speed="10.36" length="24.51" shape="186.40,198.40 193.05,199.35 197.80,202.20 200.65,206.95 201.60,213.60"/>
    </edge>
    <edge id=":A0_23" function="internal">
        <lane id=":A0_23_0" index="0" speed="3.65" length="4.67" shape="186.40,198.40 187.60,199.20 188.00,200.00 187.60,200.80 186.40,201.60"/>
    </edge>
    <edge id=":A1_0" function="internal">
        <lane id=":A1_0_0" index="0" speed="6.51" length="9.03" shape="192.00,613.60 191.65,611.15 190.60,609.40 188.85,608.35 186.40,608.00"/>
    </edge>
    <edge id=":A1_1" function="internal">
        <lane id=":A1_1_0" index="0" speed="13.89" length="27.20" shape="192.00,613.60 192.00,586.40"/>
        <lane id=":A1_1_1" index="1" speed="13.89" length="27.20" shape="195.20,613.60 195.20,586.40"/>
        <lane id=":A1_1_2" index="2" speed="13.89" length="27.20" shape="198.40,613.60 198.40,586.40"/>
    </edge>
    <edge id=":A1_4" function="internal">
        <lane id=":A1_4_0" index="0" speed="10.36" length="5.01" shape="198.40,613.60 199.11,608.64"/>
    </edge>
    <edge id=":A1_5" function="internal">
        <lane id=":A1_5_0" index="0" speed="3.65" length="1.44" shape="198.40,613.60 199.20,612.40"/>
    </edge>
    <edge id=":A1_24" function="internal">
        <lane id=":A1_24_0" index="0" speed="10.36" length="19.50" shape="199.11,608.64 199.35,606.95 202.20,602.20 206.95,599.35 213.60,598.40"/>
    </edge>
    <edge id=":A1_25" function="internal">
        <lane id=":A1_25_0" index="0" speed="3.65" length="3.23" shape="199.20,612.40 200.00,612.00 200.80,612.40 201.60,613.60"/>
    </edge>
    <edge id=":A1_6" function="internal">
        <lane id=":A1_6_0" index="0" speed="6.51" length="9.03" shape="213.60,608.00 211.15,608.35 209.40,609.40 208.35,611.15 208.00,613.60"/>
    </edge>
    <edge id=":A1_7" function="internal">
        <lane id=":A1_7_0" index="0" speed="13.89" length="27.20" shape="213.60,608.00 186.40,608.00"/>
        <lane id=":A1_7_1" index="1" speed="13.89" length="27.20" shape="213.60,604.80 186.40,604.80"/>
        <lane id=":A1_7_2" index="2" speed="13.89" length="27.20" shape="213.60,601.60 186.40,601.60"/>
    </edge>
    <edge id=":A1_10" function="internal">
        <lane id=":A1_10_0" index="0" speed="10.36" length="24.51" shape="213.60,601.60 206.95,600.65 202.20,597.80 199.35,593.05 198.40,586.40"/>
    </edge>
    <edge id=":A1_11" function="internal">
        <lane id=":A1_11_0" index="0" speed="3.65" length="4.67" shape="213.60,601.60 212.40,600.80 212.00,600.00 212.40,599.20 213.60,598.40"/>
    </edge>
    <edge id=":A1_12" function="internal">
        <lane id=":A1_12_0" index="0" speed="6.51" length="9.03" shape="208.00,586.40 208.35,588.85 209.40,590.60 211.15,591.65 213.60,592.00"/>
    </edge>
    <edge id=":A1_13" function="internal">
        <lane id=":A1_13_0" index="0" speed="13.89" length="27.20" shape="208.00,586.40 208.00,613.60"/>
        <lane id=":A1_13_1" index="1" speed="13.89" length="27.20" shape="204.80,586.40 204.80,613.60"/>
        <lane id=":A1_13_2" index="2" speed="13.89" length="27.20" shape="201.60,586.40 201.60,613.60"/>
    </edge>
    <edge id=":A1_16" function="internal">
        <lane id=":A1_16_0" index="0" speed="10.36" length="5.01" shape="201.60,586.40 200.89,591.36"/>
    </edge>
    <edge id=":A1_17" function="internal">
        <lane id=":A1_17_0" index="0" speed="3.65" length="1.44" shape="201.60,586.40 200.80,587.60"/>
    </edge>
    <edge id=":A1_26" function="internal">
        <lane id=":A1_26_0" index="0" speed="10.36" length="19.50" shape="200.89,591.36 200.65,593.05 197.80,597.80 193.05,600.65 186.40,601.60"/>
    </edge>
    <edge id=":A1_27" function="internal">
        <lane id=":A1_27_0" index="0" speed="3.65" length="3.23" shape="200.80,587.60 200.00,588.00 199.20,587.60 198.40,586.40"/>
    </edge>
    <edge id=":A1_18" function="internal">
        <lane id=":A1_18_0" index="0" speed="6.51" length="9.03" shape="186.40,592.00 188.85,591.65 190.60,590.60 191.65,588.85 192.00,586.40"/>
    </edge>
    <edge id=":A1_19" function="internal">
        <lane id=":A1_19_0" index="0" speed="13.89" length="27.20" shape="186.40,592.00 213.60,592.00"/>
        <lane id=":A1_19_1" index="1" speed="13.89" length="27.20" shape="186.40,595.20 213.60,595.20"/>
        <lane id=":A1_19_2" index="2" speed="13.89" length="27.20" shape="186.40,598.40 213.60,598.40"/>
    </edge>
    <edge id=":A1_22" function="internal">
        <lane id=":A1_22_0" index="0" speed="10.36" length="24.51" shape="186.40,598.40 193.05,599.35 197.80,602.20 200.65,606.95 201.60,613.60"/>
    </edge>
    <edge id=":A1_23" function="internal">
        <lane id=":A1_23_0" index="0" speed="3.65" length="4.67" shape="186.40,598.40 187.60,599.20 188.00,600.00 187.60,600.80 186.40,601.60"/>
    </edge>
    <edge id=":A2_0" function="internal">
        <lane id=":A2_0_0" index="0" speed="6.51" length="9.03" shape="192.00,1013.60 191.65,1011.15 190.60,1009.40 188.85,1008.35 186.40,1008.00"/>
    </edge>
    <edge id=":A2_1" function="internal">
        <lane id=":A2_1_0" index="0" speed="13.89" length="27.20" shape="192.00,1013.60 192.00,986.40"/>
        <lane id=":A2_1_1" index="1" speed="13.89" length="27.20" shape="195.20,1013.60 195.20,986.40"/>
        <lane id=":A2_1_2" index="2" speed="13.89" length="27.20" shape="198.40,1013.60 198.40,986.40"/>
    </edge>
    <edge id=":A2_4" function="internal">
        <lane id=":A2_4_0" index="0" speed="10.36" length="5.01" shape="198.40,1013.60 199.11,1008.64"/>
    </edge>
    <edge id=":A2_5" function="internal">
        <lane id=":A2_5_0" index="0" speed="3.65" length="1.44" shape="198.40,1013.60 199.20,1012.40"/>
    </edge>
    <edge id=":A2_24" function="internal">
        <lane id=":A2_24_0" index="0" speed="10.36" length="19.50" shape="199.11,1008.64 199.35,1006.95 202.20,1002.20 206.95,999.35 213.60,998.40"/>
    </edge>
    <edge id=":A2_25" function="internal">
        <lane id=":A2_25_0" index="0" speed="3.65" length="3.23" shape="199.20,1012.40 200.00,1012.00 200.80,1012.40 201.60,1013.60"/>
    </edge>
    <edge id=":A2_6" function="internal">
        <lane id=":A2_6_0" index="0" speed="6.51" length="9.03" shape="213.60,1008.00 211.15,1008.35 209.40,1009.40 208.35,1011.15 208.00,1013.60"/>
    </edge>
    <edge id=":A2_7" function="internal">
        <lane id=":A2_7_0" index="0" speed="13.89" length="27.20" shape="213.60,1008.00 186.40,1008.00"/>
        <lane id=":A2_7_1" index="1" speed="13.89" length="27.20" shape="213.60,1004.80 186.40,1004.80"/>
        <lane id=":A2_7_2" index="2" speed="13.89" length="27.20" shape="213.60,1001.60 186.40,1001.60"/>
    </edge>
    <edge id=":A2_10" function="internal">
        <lane id=":A2_10_0" index="0" speed="10.36" length="24.51" shape="213.60,1001.60 206.95,1000.65 202.20,997.80 199.35,993.05 198.40,986.40"/>
    </edge>
    <edge id=":A2_11" function="internal">
        <lane id=":A2_11_0" index="0" speed="3.65" length="4.67" shape="213.60,1001.60 212.40,1000.80 212.00,1000.00 212.40,999.20 213.60,998.40"/>
    </edge>
    <edge id=":A2_12" function="internal">
        <lane id=":A2_12_0" index="0" speed="6.51" length="9.03" shape="208.00,986.40 208.35,988.85 209.40,990.60 211.15,991.65 213.60,992.00"/>
    </edge>
    <edge id=":A2_13" function="internal">
        <lane id=":A2_13_0" index="0" speed="13.89" length="27.20" shape="208.00,986.40 208.00,1013.60"/>
        <lane id=":A2_13_1" index="1" speed="13.89" length="27.20" shape="204.80,986.40 204.80,1013.60"/>
        <lane id=":A2_13_2" index="2" speed="13.89" length="27.20" shape="201.60,986.40 201.60,1013.60"/>
    </edge>
    <edge id=":A2_16" function="internal">
        <lane id=":A2_16_0" index="0" speed="10.36" length="5.01" shape="201.60,986.40 200.89,991.36"/>
    </edge>
    <edge id=":A2_17" function="internal">
        <lane id=":A2_17_0" index="0" speed="3.65" length="1.44" shape="201.60,986.40 200.80,987.60"/>
    </edge>
    <edge id=":A2_26" function="internal">
        <lane id=":A2_26_0" index="0" speed="10.36" length="19.50" shape="200.89,991.36 200.65,993.05 197.80,997.80 193.05,1000.65 186.40,1001.60"/>
    </edge>
    <edge id=":A2_27" function="internal">
        <lane id=":A2_27_0" index="0" speed="3.65" length="3.23" shape="200.80,987.60 200.00,988.00 199.20,987.60 198.40,986.40"/>
    </edge>
    <edge id=":A2_18" function="internal">
        <lane id=":A2_18_0" index="0" speed="6.51" length="9.03" shape="186.40,992.00 188.85,991.65 190.60,990.60 191.65,988.85 192.00,986.40"/>
    </edge>
    <edge id=":A2_19" function="internal">
        <lane id=":A2_19_0" index="0" speed="13.89" length="27.20" shape="186.40,992.00 213.60,992.00"/>
        <lane id=":A2_19_1" index="1" speed="13.89" length="27.20" shape="186.40,995.20 213.60,995.20"/>
        <lane id=":A2_19_2" index="2" speed="13.89" length="27.20" shape="186.40,998.40 213.60,998.40"/>
    </edge>
    <edge id=":A2_22" function="internal">
        <lane id=":A2_22_0" index="0" speed="10.36" length="24.51" shape="186.40,998.40 193.05,999.35 197.80,1002.20 200.65,1006.95 201.60,1013.60"/>
    </edge>
    <edge id=":A2_23" function="internal">
        <lane id=":A2_23_0" index="0" speed="3.65" length="4.67" shape="186.40,998.40 187.60,999.20 188.00,1000.00 187.60,1000.80 186.40,1001.60"/>
    </edge>
    <edge id=":A3_0" function="internal">
        <lane id=":A3_0_0" index="0" speed="6.51" length="9.03" shape="192.00,1413.60 191.65,1411.15 190.60,1409.40 188.85,1408.35 186.40,1408.00"/>
    </edge>
    <edge id=":A3_1" function="internal">
        <lane id=":A3_1_0" index="0" speed="13.89" length="27.20" shape="192.00,1413.60 192.00,1386.40"/>
        <lane id=":A3_1_1" index="1" speed="13.89" length="27.20" shape="195.20,1413.60 195.20,1386.40"/>
        <lane id=":A3_1_2" index="2" speed="13.89" length="27.20" shape="198.40,1413.60 198.40,1386.40"/>
    </edge>
    <edge id=":A3_4" function="internal">
        <lane id=":A3_4_0" index="0" speed="10.36" length="5.01" shape="198.40,1413.60 199.11,1408.64"/>
    </edge>
    <edge id=":A3_5" function="internal">
        <lane id=":A3_5_0" index="0" speed="3.65" length="1.44" shape="198.40,1413.60 199.20,1412.40"/>
    </edge>
    <edge id=":A3_24" function="internal">
        <lane id=":A3_24_0" index="0" speed="10.36" length="19.50" shape="199.11,1408.64 199.35,1406.95 202.20,1402.20 206.95,1399.35 213.60,1398.40"/>
    </edge>
    <edge id=":A3_25" function="internal">
        <lane id=":A3_25_0" index="0" speed="3.65" length="3.23" shape="199.20,1412.40 200.00,1412.00 200.80,1412.40 201.60,1413.60"/>
    </edge>
    <edge id=":A3_6" function="internal">
        <lane id=":A3_6_0" index="0" speed="6.51" length="9.03" shape="213.60,1408.00 211.15,1408.35 209.40,1409.40 208.35,1411.15 208.00,1413.60"/>
    </edge>
    <edge id=":A3_7" function="internal">
        <lane id=":A3_7_0" index="0" speed="13.89" length="27.20" shape="213.60,1408.00 186.40,1408.00"/>
        <lane id=":A3_7_1" index="1" speed="13.89" length="27.20" shape="213.60,1404.80 186.40,1404.80"/>
        <lane id=":A3_7_2" index="2" speed="13.89" length="27.20" shape="213.60,1401.60 186.40,1401.60"/>
    </edge>
    <edge id=":A3_10" function="internal">
        <lane id=":A3_10_0" index="0" speed="10.36" length="24.51" shape="213.60,1401.60 206.95,1400.65 202.20,1397.80 199.35,1393.05 198.40,1386.40"/>
    </edge>
    <edge id=":A3_11" function="internal">
        <lane id=":A3_11_0" index="0" speed="3.65" length="4.67" shape="213.60,1401.60 212.40,1400.80 212.00,1400.00 212.40,1399.20 213.60,1398.40"/>
    </edge>
    <edge id=":A3_12" function="internal">
        <lane id=":A3_12_0" index="0" speed="6.51" length="9.03" shape="208.00,1386.40 208.35,1388.85 209.40,1390.60 211.15,1391.65 213.60,1392.00"/>
    </edge>
    <edge id=":A3_13" function="internal">
        <lane id=":A3_13_0" index="0" speed="13.89" length="27.20" shape="208.00,1386.40 208.00,1413.60"/>
        <lane id=":A3_13_1" index="1" speed="13.89" length="27.20" shape="204.80,1386.40 204.80,1413.60"/>
        <lane id=":A3_13_2" index="2" speed="13.89" length="27.20" shape="201.60,1386.40 201.60,1413.60"/>
    </edge>
    <edge id=":A3_16" function="internal">
        <lane id=":A3_16_0" index="0" speed="10.36" length="5.01" shape="201.60,1386.40 200.89,1391.36"/>
    </edge>
    <edge id=":A3_17" function="internal">
        <lane id=":A3_17_0" index="0" speed="3.65" length="1.44" shape="201.60,1386.40 200.80,1387.60"/>
    </edge>
    <edge id=":A3_26" function="internal">
        <lane id=":A3_26_0" index="0" speed="10.36" length="19.50" shape="200.89,1391.36 200.65,1393.05 197.80,1397.80 193.05,1400.65 186.40,1401.60"/>
    </edge>
    <edge id=":A3_27" function="internal">
        <lane id=":A3_27_0" index="0" speed="3.65" length="3.23" shape="200.80,1387.60 200.00,1388.00 199.20,1387.60 198.40,1386.40"/>
    </edge>
    <edge id=":A3_18" function="internal">
        <lane id=":A3_18_0" index="0" speed="6.51" length="9.03" shape="186.40,1392.00 188.85,1391.65 190.60,1390.60 191.65,1388.85 192.00,1386.40"/>
    </edge>
    <edge id=":A3_19" function="internal">
        <lane id=":A3_19_0" index="0" speed="13.89" length="27.20" shape="186.40,1392.00 213.60,1392.00"/>
        <lane id=":A3_19_1" index="1" speed="13.89" length="27.20" shape="186.40,1395.20 213.60,1395.20"/>
        <lane id=":A3_19_2" index="2" speed="13.89" length="27.20" shape="186.40,1398.40 213.60,1398.40"/>
    </edge>
    <edge id=":A3_22" function="internal">
        <lane id=":A3_22_0" index="0" speed="10.36" length="24.51" shape="186.40,1398.40 193.05,1399.35 197.80,1402.20 200.65,1406.95 201.60,1413.60"/>
    </edge>
    <edge id=":A3_23" function="internal">
        <lane id=":A3_23_0" index="0" speed="3.65" length="4.67" shape="186.40,1398.40 187.60,1399.20 188.00,1400.00 187.60,1400.80 186.40,1401.60"/>
    </edge>
    <edge id=":B0_0" function="internal">
        <lane id=":B0_0_0" index="0" speed="6.51" length="9.03" shape="492.00,213.60 491.65,211.15 490.60,209.40 488.85,208.35 486.40,208.00"/>
    </edge>
    <edge id=":B0_1" function="internal">
        <lane id=":B0_1_0" index="0" speed="13.89" length="27.20" shape="492.00,213.60 492.00,186.40"/>
        <lane id=":B0_1_1" index="1" speed="13.89" length="27.20" shape="495.20,213.60 495.20,186.40"/>
        <lane id=":B0_1_2" index="2" speed="13.89" length="27.20" shape="498.40,213.60 498.40,186.40"/>
    </edge>
    <edge id=":B0_4" function="internal">
        <lane id=":B0_4_0" index="0" speed="10.36" length="5.01" shape="498.40,213.60 499.11,208.64"/>
    </edge>
    <edge id=":B0_5" function="internal">
        <lane id=":B0_5_0" index="0" speed="3.65" length="1.44" shape="498.40,213.60 499.20,212.40"/>
    </edge>
    <edge id=":B0_24" function="internal">
        <lane id=":B0_24_0" index="0" speed="10.36" length="19.50" shape="499.11,208.64 499.35,206.95 502.20,202.20 506.95,199.35 513.60,198.40"/>
    </edge>
    <edge id=":B0_25" function="internal">
        <lane id=":B0_25_0" index="0" speed="3.65" length="3.23" shape="499.20,212.40 500.00,212.00 500.80,212.40 501.60,213.60"/>
    </edge>
    <edge id=":B0_6" function="internal">
        <lane id=":B0_6_0" index="0" speed="6.51" length="9.03" shape="513.60,208.00 511.15,208.35 509.40,209.40 508.35,211.15 508.00,213.60"/>
    </edge>
    <edge id=":B0_7" function="internal">
        <lane id=":B0_7_0" index="0" speed="13.89" length="27.20" shape="513.60,208.00 486.40,208.00"/>
        <lane id=":B0_7_1" index="1" speed="13.89" length="27.20" shape="513.60,204.80 486.40,204.80"/>
        <lane id=":B0_7_2" index="2" speed="13.89" length="27.20" shape="513.60,201.60 486.40,201.60"/>
    </edge>
    <edge id=":B0_10" function="internal">
        <lane id=":B0_10_0" index="0" speed="10.36" length="24.51" shape="513.60,201.60 506.95,200.65 502.20,197.80 499.35,193.05 498.40,186.40"/>
    </edge>
    <edge id=":B0_11" function="internal">
        <lane id=":B0_11_0" index="0" speed="3.65" length="4.67" shape="513.60,201.60 512.40,200.80 512.00,200.00 512.40,199.20 513.60,198.40"/>
    </edge>
    <edge id=":B0_12" function="internal">
        <lane id=":B0_12_0" index="0" speed="6.51" length="9.03" shape="508.00,186.40 508.35,188.85 509.40,190.60 511.15,191.65 513.60,192.00"/>
    </edge>
    <edge id=":B0_13" function="internal">
        <lane id=":B0_13_0" index="0" speed="13.89" length="27.20" shape="508.00,186.40 508.00,213.60"/>
        <lane id=":B0_13_1" index="1" speed="13.89" length="27.20" shape="504.80,186.40 504.80,213.60"/>
        <lane id=":B0_13_2" index="2" speed="13.89" length="27.20" shape="501.60,186.40 501.60,213.60"/>
    </edge>
    <edge id=":B0_16" function="internal">
        <lane id=":B0_16_0" index="0" speed="10.36" length="5.01" shape="501.60,186.40 500.89,191.36"/>
    </edge>
    <edge id=":B0_17" function="internal">
        <lane id=":B0_17_0" index="0" speed="3.65" length="1.44" shape="501.60,186.40 500.80,187.60"/>
    </edge>
    <edge id=":B0_26" function="internal">
        <lane id=":B0_26_0" index="0" speed="10.36" length="19.50" shape="500.89,191.36 500.65,193.05 497.80,197.80 493.05,200.65 486.40,201.60"/>
    </edge>
    <edge id=":B0_27" function="internal">
        <lane id=":B0_27_0" index="0" speed="3.65" length="3.23" shape="500.80,187.60 500.00,188.00 499.20,187.60 498.40,186.40"/>
    </edge>
    <edge id=":B0_18" function="internal">
        <lane id=":B0_18_0" index="0" speed="6.51" length="9.03" shape="486.40,192.00 488.85,191.65 490.60,190.60 491.65,188.85 492.00,186.40"/>
    </edge>
    <edge id=":B0_19" function="internal">
        <lane id=":B0_19_0" index="0" speed="13.89" length="27.20" shape="486.40,192.00 513.60,192.00"/>
        <lane id=":B0_19_1" index="1" speed="13.89" length="27.20" shape="486.40,195.20 513.60,195.20"/>
        <lane id=":B0_19_2" index="2" speed="13.89" length="27.20" shape="486.40,198.40 513.60,198.40"/>
    </edge>
    <edge id=":B0_22" function="internal">
        <lane id=":B0_22_0" index="0" speed="10.36" length="24.51" shape="486.40,198.40 493.05,199.35 497.80,202.20 500.65,206.95 501.60,213.60"/>
    </edge>
    <edge id=":B0_23" function="internal">
        <lane id=":B0_23_0" index="0" speed="3.65" length="4.67" shape="486.40,198.40 487.60,199.20 488.00,200.00 487.60,200.80 486.40,201.60"/>
    </edge>
    <edge id=":B1_0" function="internal">
        <lane id=":B1_0_0" index="0" speed="6.51" length="9.03" shape="492.00,613.60 491.65,611.15 490.60,609.40 488.85,608.35 486.40,608.00"/>
    </edge>
    <edge id=":B1_1" function="internal">
        <lane id=":B1_1_0" index="0" speed="13.89" length="27.20" shape="492.00,613.60 492.00,586.40"/>
        <lane id=":B1_1_1" index="1" speed="13.89" length="27.20" shape="495.20,613.60 495.20,586.40"/>
        <lane id=":B1_1_2" index="2" speed="13.89" length="27.20" shape="498.40,613.60 498.40,586.40"/>
    </edge>
    <edge id=":B1_4" function="internal">
        <lane id=":B1_4_0" index="0" speed="10.36" length="5.01" shape="498.40,613.60 499.11,608.64"/>
    </edge>
    <edge id=":B1_5" function="internal">
        <lane id=":B1_5_0" index="0" speed="3.65" length="1.44" shape="498.40,613.60 499.20,612.40"/>
    </edge>
    <edge id=":B1_24" function="internal">
        <lane id=":B1_24_0" index="0" speed="10.36" length="19.50" shape="499.11,608.64 499.35,606.95 502.20,602.20 506.95,599.35 513.60,598.40"/>
    </edge>
    <edge id=":B1_25" function="internal">
        <lane id=":B1_25_0" index="0" speed="3.65" length="3.23" shape="499.20,612.40 500.00,612.00 500.80,612.40 501.60,613.60"/>
    </edge>
    <edge id=":B1_6" function="internal">
        <lane id=":B1_6_0" index="0" speed="6.51" length="9.03" shape="513.60,608.00 511.15,608.35 509.40,609.40 508.35,611.15 508.00,613.60"/>
    </edge>
    <edge id=":B1_7" function="internal">
        <lane id=":B1_7_0" index="0" speed="13.89" length="27.20" shape="513.60,608.00 486.40,608.00"/>
        <lane id=":B1_7_1" index="1" speed="13.89" length="27.20" shape="513.60,604.80 486.40,604.80"/>
        <lane id=":B1_7_2" index="2" speed="13.89" length="27.20" shape="513.60,601.60 486.40,601.60"/>
    </edge>
    <edge id=":B1_10" function="internal">
        <lane id=":B1_10_0" index="0" speed="10.36" length="24.51" shape="513.60,601.60 506.95,600.65 502.20,597.80 499.35,593.05 498.40,586.40"/>
    </edge>
    <edge id=":B1_11" function="internal">
        <lane id=":B1_11_0" index="0" speed="3.65" length="4.67" shape="513.60,601.60 512.40,600.80 512.00,600.00 512.40,599.20 513.60,598.40"/>
    </edge>
    <edge id=":B1_12" function="internal">
        <lane id=":B1_12_0" index="0" speed="6.51" length="9.03" shape="508.00,586.40 508.35,588.85 509.40,590.60 511.15,591.65 513.60,592.00"/>
    </edge>
    <edge id=":B1_13" function="internal">
        <lane id=":B1_13_0" index="0" speed="13.89" length="27.20" shape="508.00,586.40 508.00,613.60"/>
        <lane id=":B1_13_1" index="1" speed="13.89" length="27.20" shape="504.80,586.40 504.80,613.60"/>
        <lane id=":B1_13_2" index="2" speed="13.89" length="27.20" shape="501.60,586.40 501.60,613.60"/>
    </edge>
    <edge id=":B1_16" function="internal">
        <lane id=":B1_16_0" index="0" speed="10.36" length="5.01" shape="501.60,586.40 500.89,591.36"/>
    </edge>
    <edge id=":B1_17" function="internal">
        <lane id=":B1_17_0" index="0" speed="3.65" length="1.44" shape="501.60,586.40 500.80,587.60"/>
    </edge>
    <edge id=":B1_26" function="internal">
        <lane id=":B1_26_0" index="0" speed="10.36" length="19.50" shape="500.89,591.36 500.65,593.05 497.80,597.80 493.05,600.65 486.40,601.60"/>
    </edge>
    <edge id=":B1_27" function="internal">
        <lane id=":B1_27_0" index="0" speed="3.65" length="3.23" shape="500.80,587.60 500.00,588.00 499.20,587.60 498.40,586.40"/>
    </edge>
    <edge id=":B1_18" function="internal">
        <lane id=":B1_18_0" index="0" speed="6.51" length="9.03" shape="486.40,592.00 488.85,591.65 490.60,590.60 491.65,588.85 492.00,586.40"/>
    </edge>
    <edge id=":B1_19" function="internal">
        <lane id=":B1_19_0" index="0" speed="13.89" length="27.20" shape="486.40,592.00 513.60,592.00"/>
        <lane id=":B1_19_1" index="1" speed="13.89" length="27.20" shape="486.40,595.20 513.60,595.20"/>
        <lane id=":B1_19_2" index="2" speed="13.89" length="27.20" shape="486.40,598.40 513.60,598.40"/>
    </edge>
    <edge id=":B1_22" function="internal">
        <lane id=":B1_22_0" index="0" speed="10.36" length="24.51" shape="486.40,598.40 493.05,599.35 497.80,602.20 500.65,606.95 501.60,613.60"/>
    </edge>
    <edge id=":B1_23" function="internal">
        <lane id=":B1_23_0" index="0" speed="3.65" length="4.67" shape="486.40,598.40 487.60,599.20 488.00,600.00 487.60,600.80 486.40,601.60"/>
    </edge>
    <edge id=":B2_0" function="internal">
        <lane id=":B2_0_0" index="0" speed="6.51" length="9.03" shape="492.00,1013.60 491.65,1011.15 490.60,1009.40 488.85,1008.35 486.40,1008.00"/>
    </edge>
    <edge id=":B2_1" function="internal">
        <lane id=":B2_1_0" index="0" speed="13.89" length="27.20" shape="492.00,1013.60 492.00,986.40"/>
        <lane id=":B2_1_1" index="1" speed="13.89" length="27.20" shape="495.20,1013.60 495.20,986.40"/>
        <lane id=":B2_1_2" index="2" speed="13.89" length="27.20" shape="498.40,1013.60 498.40,986.40"/>
    </edge>
    <edge id=":B2_4" function="internal">
        <lane id=":B2_4_0" index="0" speed="10.36" length="5.01" shape="498.40,1013.60 499.11,1008.64"/>
    </edge>
    <edge id=":B2_5" function="internal">
        <lane id=":B2_5_0" index="0" speed="3.65" length="1.44" shape="498.40,1013.60 499.20,1012.40"/>
    </edge>
    <edge id=":B2_24" function="internal">
        <lane id=":B2_24_0" index="0" speed="10.36" length="19.50" shape="499.11,1008.64 499.35,1006.95 502.20,1002.20 506.95,999.35 513.60,998.40"/>
    </edge>
    <edge id=":B2_25" function="internal">
        <lane id=":B2_25_0" index="0" speed="3.65" length="3.23" shape="499.20,1012.40 500.00,1012.00 500.80,1012.40 501.60,1013.60"/>
    </edge>
    <edge id=":B2_6" function="internal">
        <lane id=":B2_6_0" index="0" speed="6.51" length="9.03" shape="513.60,1008.00 511.15,1008.35 509.40,1009.40 508.35,1011.15 508.00,1013.60"/>
    </edge>
    <edge id=":B2_7" function="internal">
        <lane id=":B2_7_0" index="0" speed="13.89" length="27.20" shape="513.60,1008.00 486.40,1008.00"/>
        <lane id=":B2_7_1" index="1" speed="13.89" length="27.20" shape="513.60,1004.80 486.40,1004.80"/>