<?xml version="1.0" encoding="UTF-8"?>
<additional xmlns:xsi="http://www.w3.org/2001/XMLSchema-instance"
            xsi:noNamespaceSchemaLocation="http://sumo.dlr.de/xsd/additional_file.xsd">
    <laneAreaDetector id="det_he_0_0_1" lanes="he_0_0_1_0" pos="37" endPos="137" period="900" file="../data/raw/e2_output.xml" friendlyPos="true"/>
    <laneAreaDetector id="det_he_0_1_2" lanes="he_0_1_2_0" pos="40" endPos="140" period="900" file="../data/raw/e2_output.xml" friendlyPos="true"/>
    <laneAreaDetector id="det_he_0_2_3" lanes="he_0_2_3_0" pos="28" endPos="128" period="900" file="../data/raw/e2_output.xml" friendlyPos="true"/>
    <laneAreaDetector id="det_he_0_3_4" lanes="he_0_3_4_0" pos="28" endPos="128" period="900" file="../data/raw/e2_output.xml" friendlyPos="true"/>
    <laneAreaDetector id="det_he_1_0_1" lanes="he_1_0_1_0" pos="36" endPos="136" period="900" file="../data/raw/e2_output.xml" friendlyPos="true"/>
    <laneAreaDetector id="det_he_1_1_2" lanes="he_1_1_2_0" pos="40" endPos="140" period="900" file="../data/raw/e2_output.xml" friendlyPos="true"/>
    <laneAreaDetector id="det_he_1_2_3" lanes="he_1_2_3_0" pos="28" endPos="128" period="900" file="../data/raw/e2_output.xml" friendlyPos="true"/>
    <laneAreaDetector id="det_he_1_3_4" lanes="he_1_3_4_0" pos="28" endPos="128" period="900" file="../data/raw/e2_output.xml" friendlyPos="true"/>
    <laneAreaDetector id="det_he_2_0_1" lanes="he_2_0_1_0" pos="36" endPos="136" period="900" file="../data/raw/e2_output.xml" friendlyPos="true"/>
    <laneAreaDetector id="det_he_2_1_2" lanes="he_2_1_2_0" pos="40" endPos="140" period="900" file="../data/raw/e2_output.xml" friendlyPos="true"/>
    <laneAreaDetector id="det_he_2_2_3" lanes="he_2_2_3_0" pos="28" endPos="128" period="900" file="../data/raw/e2_output.xml" friendlyPos="true"/>
    <laneAreaDetector id="det_he_2_3_4" lanes="he_2_3_4_0" pos="28" endPos="128" period="900" file="../data/raw/e2_output.xml" friendlyPos="true"/>
    <laneAreaDetector id="det_he_3_0_1" lanes="he_3_0_1_0" pos="36" endPos="136" period="900" file="../data/raw/e2_output.xml" friendlyPos="true"/>
    <laneAreaDetector id="det_he_3_1_2" lanes="he_3_1_2_0" pos="40" endPos="140" period="900" file="../data/raw/e2_output.xml" friendlyPos="true"/>
    <laneAreaDetector id="det_he_3_2_3" lanes="he_3_2_3_0" pos="28" endPos="128" period="900" file="../data/raw/e2_output.xml" friendlyPos="true"/>
    <laneAreaDetector id="det_he_3_3_4" lanes="he_3_3_4_0" pos="28" endPos="128" period="900" file="../data/raw/e2_output.xml" friendlyPos="true"/>
    <laneAreaDetector id="det_he_4_0_1" lanes="he_4_0_1_0" pos="36" endPos="136" period="900" file="../data/raw/e2_output.xml" friendlyPos="true"/>
    <laneAreaDetector id="det_he_4_1_2" lanes="he_4_1_2_0" pos="40" endPos="140" period="900" file="../data/raw/e2_output.xml" friendlyPos="true"/>
    <laneAreaDetector id="det_he_4_2_3" lanes="he_4_2_3_0" pos="28" endPos="128" period="900" file="../data/raw/e2_output.xml" friendlyPos="true"/>
    <laneAreaDetector id="det_he_4_3_4" lanes="he_4_3_4_0" pos="28" endPos="128" period="900" file="../data/raw/e2_output.xml" friendlyPos="true"/>
    <laneAreaDetector id="det_he_5_0_1" lanes="he_5_0_1_0" pos="36" endPos="136" period="900" file="../data/raw/e2_output.xml" friendlyPos="true"/>
    <laneAreaDetector id="det_he_5_1_2" lanes="he_5_1_2_0" pos="40" endPos="140" period="900" file="../data/raw/e2_output.xml" friendlyPos="true"/>
    <laneAreaDetector id="det_he_5_2_3" lanes="he_5_2_3_0" pos="28" endPos="128" period="900" file="../data/raw/e2_output.xml" friendlyPos="true"/>
    <laneAreaDetector id="det_he_5_3_4" lanes="he_5_3_4_0" pos="28" endPos="128" period="900" file="../data/raw/e2_output.xml" friendlyPos="true"/>
    <laneAreaDetector id="det_he_6_0_1" lanes="he_6_0_1_0" pos="37" endPos="137" period="900" file="../data/raw/e2_output.xml" friendlyPos="true"/>
    <laneAreaDetector id="det_he_6_1_2" lanes="he_6_1_2_0" pos="40" endPos="140" period="900" file="../data/raw/e2_output.xml" friendlyPos="true"/>
    <laneAreaDetector id="det_he_6_2_3" lanes="he_6_2_3_0" pos="28" endPos="128" period="900" file="../data/raw/e2_output.xml" friendlyPos="true"/>
    <laneAreaDetector id="det_he_6_3_4" lanes="he_6_3_4_0" pos="28" endPos="128" period="900" file="../data/raw/e2_output.xml" friendlyPos="true"/>
    <laneAreaDetector id="det_hw_0_1_0" lanes="hw_0_1_0_0" pos="37" endPos="137" period="900" file="../data/raw/e2_output.xml" friendlyPos="true"/>
    <laneAreaDetector id="det_hw_0_2_1" lanes="hw_0_2_1_0" pos="40" endPos="140" period="900" file="../data/raw/e2_output.xml" friendlyPos="true"/>
    <laneAreaDetector id="det_hw_0_3_2" lanes="hw_0_3_2_0" pos="28" endPos="128" period="900" file="../data/raw/e2_output.xml" friendlyPos="true"/>
    <laneAreaDetector id="det_hw_0_4_3" lanes="hw_0_4_3_0" pos="28" endPos="128" period="900" file="../data/raw/e2_output.xml" friendlyPos="true"/>
    <laneAreaDetector id="det_hw_1_1_0" lanes="hw_1_1_0_0" pos="36" endPos="136" period="900" file="../data/raw/e2_output.xml" friendlyPos="true"/>
    <laneAreaDetector id="det_hw_1_2_1" lanes="hw_1_2_1_0" pos="40" endPos="140" period="900" file="../data/raw/e2_output.xml" friendlyPos="true"/>
    <laneAreaDetector id="det_hw_1_3_2" lanes="hw_1_3_2_0" pos="28" endPos="128" period="900" file="../data/raw/e2_output.xml" friendlyPos="true"/>
    <laneAreaDetector id="det_hw_1_4_3" lanes="hw_1_4_3_0" pos="28" endPos="128" period="900" file="../data/raw/e2_output.xml" friendlyPos="true"/>
    <laneAreaDetector id="det_hw_2_1_0" lanes="hw_2_1_0_0" pos="36" endPos="136" period="900" file="../data/raw/e2_output.xml" friendlyPos="true"/>
    <laneAreaDetector id="det_hw_2_2_1" lanes="hw_2_2_1_0" pos="40" endPos="140" period="900" file="../data/raw/e2_output.xml" friendlyPos="true"/>
    <laneAreaDetector id="det_hw_2_3_2" lanes="hw_2_3_2_0" pos="28" endPos="128" period="900" file="../data/raw/e2_output.xml" friendlyPos="true"/>
    <laneAreaDetector id="det_hw_2_4_3" lanes="hw_2_4_3_0" pos="28" endPos="128" period="900" file="../data/raw/e2_output.xml" friendlyPos="true"/>
    <laneAreaDetector id="det_hw_3_1_0" lanes="hw_3_1_0_0" pos="36" endPos="136" period="900" file="../data/raw/e2_output.xml" friendlyPos="true"/>
    <laneAreaDetector id="det_hw_3_2_1" lanes="hw_3_2_1_0" pos="40" endPos="140" period="900" file="../data/raw/e2_output.xml" friendlyPos="true"/>
    <laneAreaDetector id="det_hw_3_3_2" lanes="hw_3_3_2_0" pos="28" endPos="128" period="900" file="../data/raw/e2_output.xml" friendlyPos="true"/>
    <laneAreaDetector id="det_hw_3_4_3" lanes="hw_3_4_3_0" pos="28" endPos="128" period="900" file="../data/raw/e2_output.xml" friendlyPos="true"/>
    <laneAreaDetector id="det_hw_4_1_0" lanes="hw_4_1_0_0" pos="36" endPos="136" period="900" file="../data/raw/e2_output.xml" friendlyPos="true"/>
    <laneAreaDetector id="det_hw_4_2_1" lanes="hw_4_2_1_0" pos="40" endPos="140" period="900" file="../data/raw/e2_output.xml" friendlyPos="true"/>
    <laneAreaDetector id="det_hw_4_3_2" lanes="hw_4_3_2_0" pos="28" endPos="128" period="900" file="../data/raw/e2_output.xml" friendlyPos="true"/>
    <laneAreaDetector id="det_hw_4_4_3" lanes="hw_4_4_3_0" pos="28" endPos="128" period="900" file="../data/raw/e2_output.xml" friendlyPos="true"/>
    <laneAreaDetector id="det_hw_5_1_0" lanes="hw_5_1_0_0" pos="36" endPos="136" period="900" file="../data/raw/e2_output.xml" friendlyPos="true"/>
    <laneAreaDetector id="det_hw_5_2_1" lanes="hw_5_2_1_0" pos="40" endPos="140" period="900" file="../data/raw/e2_output.xml" friendlyPos="true"/>
    <laneAreaDetector id="det_hw_5_3_2" lanes="hw_5_3_2_0" pos="28" endPos="128" period="900" file="../data/raw/e2_output.xml" friendlyPos="true"/>
    <laneAreaDetector id="det_hw_5_4_3" lanes="hw_5_4_3_0" pos="28" endPos="128" period="900" file="../data/raw/e2_output.xml" friendlyPos="true"/>
    <laneAreaDetector id="det_hw_6_1_0" lanes="hw_6_1_0_0" pos="37" endPos="137" period="900" file="../data/raw/e2_output.xml" friendlyPos="true"/>
    <laneAreaDetector id="det_hw_6_2_1" lanes="hw_6_2_1_0" pos="40" endPos="140" period="900" file="../data/raw/e2_output.xml" friendlyPos="true"/>
    <laneAreaDetector id="det_hw_6_3_2" lanes="hw_6_3_2_0" pos="28" endPos="128" period="900" file="../data/raw/e2_output.xml" friendlyPos="true"/>
    <laneAreaDetector id="det_hw_6_4_3" lanes="hw_6_4_3_0" pos="28" endPos="128" period="900" file="../data/raw/e2_output.xml" friendlyPos="true"/>
    <laneAreaDetector id="det_vn_0_0_1" lanes="vn_0_0_1_0" pos="20" endPos="120" period="900" file="../data/raw/e2_output.xml" friendlyPos="true"/>
    <laneAreaDetector id="det_vn_0_1_2" lanes="vn_0_1_2_0" pos="17" endPos="117" period="900" file="../data/raw/e2_output.xml" friendlyPos="true"/>
    <laneAreaDetector id="det_vn_0_2_3" lanes="vn_0_2_3_0" pos="14" endPos="114" period="900" file="../data/raw/e2_output.xml" friendlyPos="true"/>
    <laneAreaDetector id="det_vn_0_3_4" lanes="vn_0_3_4_0" pos="14" endPos="114" period="900" file="../data/raw/e2_output.xml" friendlyPos="true"/>
    <laneAreaDetector id="det_vn_0_4_5" lanes="vn_0_4_5_0" pos="18" endPos="118" period="900" file="../data/raw/e2_output.xml" friendlyPos="true"/>
    <laneAreaDetector id="det_vn_0_5_6" lanes="vn_0_5_6_0" pos="28" endPos="128" period="900" file="../data/raw/e2_output.xml" friendlyPos="true"/>
    <laneAreaDetector id="det_vn_1_0_1" lanes="vn_1_0_1_0" pos="20" endPos="120" period="900" file="../data/raw/e2_output.xml" friendlyPos="true"/>
    <laneAreaDetector id="det_vn_1_1_2" lanes="vn_1_1_2_0" pos="17" endPos="117" period="900" file="../data/raw/e2_output.xml" friendlyPos="true"/>
    <laneAreaDetector id="det_vn_1_2_3" lanes="vn_1_2_3_0" pos="14" endPos="114" period="900" file="../data/raw/e2_output.xml" friendlyPos="true"/>
    <laneAreaDetector id="det_vn_1_3_4" lanes="vn_1_3_4_0" pos="14" endPos="114" period="900" file="../data/raw/e2_output.xml" friendlyPos="true"/>
    <laneAreaDetector id="det_vn_1_4_5" lanes="vn_1_4_5_0" pos="18" endPos="118" period="900" file="../data/raw/e2_output.xml" friendlyPos="true"/>
    <laneAreaDetector id="det_vn_1_5_6" lanes="vn_1_5_6_0" pos="28" endPos="128" period="900" file="../data/raw/e2_output.xml" friendlyPos="true"/>
    <laneAreaDetector id="det_vn_2_0_1" lanes="vn_2_0_1_0" pos="20" endPos="120" period="900" file="../data/raw/e2_output.xml" friendlyPos="true"/>
    <laneAreaDetector id="det_vn_2_1_2" lanes="vn_2_1_2_0" pos="17" endPos="117" period="900" file="../data/raw/e2_output.xml" friendlyPos="true"/>
    <laneAreaDetector id="det_vn_2_2_3" lanes="vn_2_2_3_0" pos="14" endPos="114" period="900" file="../data/raw/e2_output.xml" friendlyPos="true"/>
    <laneAreaDetector id="det_vn_2_3_4" lanes="vn_2_3_4_0" pos="14" endPos="114" period="900" file="../data/raw/e2_output.xml" friendlyPos="true"/>
    <laneAreaDetector id="det_vn_2_4_5" lanes="vn_2_4_5_0" pos="18" endPos="118" period="900" file="../data/raw/e2_output.xml" friendlyPos="true"/>
    <laneAreaDetector id="det_vn_2_5_6" lanes="vn_2_5_6_0" pos="28" endPos="128" period="900" file="../data/raw/e2_output.xml" friendlyPos="true"/>
    <laneAreaDetector id="det_vn_3_0_1" lanes="vn_3_0_1_0" pos="20" endPos="120" period="900" file="../data/raw/e2_output.xml" friendlyPos="true"/>
    <laneAreaDetector id="det_vn_3_1_2" lanes="vn_3_1_2_0" pos="17" endPos="117" period="900" file="../data/raw/e2_output.xml" friendlyPos="true"/>
    <laneAreaDetector id="det_vn_3_2_3" lanes="vn_3_2_3_0" pos="14" endPos="114" period="900" file="../data/raw/e2_output.xml" friendlyPos="true"/>
    <laneAreaDetector id="det_vn_3_3_4" lanes="vn_3_3_4_0" pos="14" endPos="114" period="900" file="../data/raw/e2_output.xml" friendlyPos="true"/>
    <laneAreaDetector id="det_vn_3_4_5" lanes="vn_3_4_5_0" pos="18" endPos="118" period="900" file="../data/raw/e2_output.xml" friendlyPos="true"/>
    <laneAreaDetector id="det_vn_3_5_6" lanes="vn_3_5_6_0" pos="28" endPos="128" period="900" file="../data/raw/e2_output.xml" friendlyPos="true"/>
    <laneAreaDetector id="det_vn_4_0_1" lanes="vn_4_0_1_0" pos="20" endPos="120" period="900" file="../data/raw/e2_output.xml" friendlyPos="true"/>
    <laneAreaDetector id="det_vn_4_1_2" lanes="vn_4_1_2_0" pos="17" endPos="117" period="900" file="../data/raw/e2_output.xml" friendlyPos="true"/>
    <laneAreaDetector id="det_vn_4_2_3" lanes="vn_4_2_3_0" pos="14" endPos="114" period="900" file="../data/raw/e2_output.xml" friendlyPos="true"/>
    <laneAreaDetector id="det_vn_4_3_4" lanes="vn_4_3_4_0" pos="14" endPos="114" period="900" file="../data/raw/e2_output.xml" friendlyPos="true"/>
    <laneAreaDetector id="det_vn_4_4_5" lanes="vn_4_4_5_0" pos="18" endPos="118" period="900" file="../data/raw/e2_output.xml" friendlyPos="true"/>
    <laneAreaDetector id="det_vn_4_5_6" lanes="vn_4_5_6_0" pos="28" endPos="128" period="900" file="../data/raw/e2_output.xml" friendlyPos="true"/>
    <laneAreaDetector id="det_vs_0_1_0" lanes="vs_0_1_0_0" pos="20" endPos="120" period="900" file="../data/raw/e2_output.xml" friendlyPos="true"/>
    <laneAreaDetector id="det_vs_0_2_1" lanes="vs_0_2_1_0" pos="17" endPos="117" period="900" file="../data/raw/e2_output.xml" friendlyPos="true"/>
    <laneAreaDetector id="det_vs_0_3_2" lanes="vs_0_3_2_0" pos="14" endPos="114" period="900" file="../data/raw/e2_output.xml" friendlyPos="true"/>
    <laneAreaDetector id="det_vs_0_4_3" lanes="vs_0_4_3_0" pos="14" endPos="114" period="900" file="../data/raw/e2_output.xml" friendlyPos="true"/>
    <laneAreaDetector id="det_vs_0_5_4" lanes="vs_0_5_4_0" pos="18" endPos="118" period="900" file="../data/raw/e2_output.xml" friendlyPos="true"/>
    <laneAreaDetector id="det_vs_0_6_5" lanes="vs_0_6_5_0" pos="28" endPos="128" period="900" file="../data/raw/e2_output.xml" friendlyPos="true"/>
    <laneAreaDetector id="det_vs_1_1_0" lanes="vs_1_1_0_0" pos="20" endPos="120" period="900" file="../data/raw/e2_output.xml" friendlyPos="true"/>
    <laneAreaDetector id="det_vs_1_2_1" lanes="vs_1_2_1_0" pos="17" endPos="117" period="900" file="../data/raw/e2_output.xml" friendlyPos="true"/>
    <laneAreaDetector id="det_vs_1_3_2" lanes="vs_1_3_2_0" pos="14" endPos="114" period="900" file="../data/raw/e2_output.xml" friendlyPos="true"/>
    <laneAreaDetector id="det_vs_1_4_3" lanes="vs_1_4_3_0" pos="14" endPos="114" period="900" file="../data/raw/e2_output.xml" friendlyPos="true"/>
    <laneAreaDetector id="det_vs_1_5_4" lanes="vs_1_5_4_0" pos="18" endPos="118" period="900" file="../data/raw/e2_output.xml" friendlyPos="true"/>
    <laneAreaDetector id="det_vs_1_6_5" lanes="vs_1_6_5_0" pos="28" endPos="128" period="900" file="../data/raw/e2_output.xml" friendlyPos="true"/>
    <laneAreaDetector id="det_vs_2_1_0" lanes="vs_2_1_0_0" pos="20" endPos="120" period="900" file="../data/raw/e2_output.xml" friendlyPos="true"/>
    <laneAreaDetector id="det_vs_2_2_1" lanes="vs_2_2_1_0" pos="17" endPos="117" period="900" file="../data/raw/e2_output.xml" friendlyPos="true"/>
    <laneAreaDetector id="det_vs_2_3_2" lanes="vs_2_3_2_0" pos="14" endPos="114" period="900" file="../data/raw/e2_output.xml" friendlyPos="true"/>
    <laneAreaDetector id="det_vs_2_4_3" lanes="vs_2_4_3_0" pos="14" endPos="114" period="900" file="../data/raw/e2_output.xml" friendlyPos="true"/>
    <laneAreaDetector id="det_vs_2_5_4" lanes="vs_2_5_4_0" pos="18" endPos="118" period="900" file="../data/raw/e2_output.xml" friendlyPos="true"/>
    <laneAreaDetector id="det_vs_2_6_5" lanes="vs_2_6_5_0" pos="28" endPos="128" period="900" file="../data/raw/e2_output.xml" friendlyPos="true"/>
    <laneAreaDetector id="det_vs_3_1_0" lanes="vs_3_1_0_0" pos="20" endPos="120" period="900" file="../data/raw/e2_output.xml" friendlyPos="true"/>
    <laneAreaDetector id="det_vs_3_2_1" lanes="vs_3_2_1_0" pos="17" endPos="117" period="900" file="../data/raw/e2_output.xml" friendlyPos="true"/>
    <laneAreaDetector id="det_vs_3_3_2" lanes="vs_3_3_2_0" pos="14" endPos="114" period="900" file="../data/raw/e2_output.xml" friendlyPos="true"/>
    <laneAreaDetector id="det_vs_3_4_3" lanes="vs_3_4_3_0" pos="14" endPos="114" period="900" file="../data/raw/e2_output.xml" friendlyPos="true"/>
    <laneAreaDetector id="det_vs_3_5_4" lanes="vs_3_5_4_0" pos="18" endPos="118" period="900" file="../data/raw/e2_output.xml" friendlyPos="true"/>
    <laneAreaDetector id="det_vs_3_6_5" lanes="vs_3_6_5_0" pos="28" endPos="128" period="900" file="../data/raw/e2_output.xml" friendlyPos="true"/>
    <laneAreaDetector id="det_vs_4_1_0" lanes="vs_4_1_0_0" pos="20" endPos="120" period="900" file="../data/raw/e2_output.xml" friendlyPos="true"/>
    <laneAreaDetector id="det_vs_4_2_1" lanes="vs_4_2_1_0" pos="17" endPos="117" period="900" file="../data/raw/e2_output.xml" friendlyPos="true"/>
    <laneAreaDetector id="det_vs_4_3_2" lanes="vs_4_3_2_0" pos="14" endPos="114" period="900" file="../data/raw/e2_output.xml" friendlyPos="true"/>
    <laneAreaDetector id="det_vs_4_4_3" lanes="vs_4_4_3_0" pos="14" endPos="114" period="900" file="../data/raw/e2_output.xml" friendlyPos="true"/>
    <laneAreaDetector id="det_vs_4_5_4" lanes="vs_4_5_4_0" pos="18" endPos="118" period="900" file="../data/raw/e2_output.xml" friendlyPos="true"/>
    <laneAreaDetector id="det_vs_4_6_5" lanes="vs_4_6_5_0" pos="28" endPos="128" period="900" file="../data/raw/e2_output.xml" friendlyPos="true"/>
</additional>