<?xml version="1.0" encoding="UTF-8"?>

<!-- generated on 2026-07-06 11:47:23 by Eclipse SUMO netconvert Version 1.24.0
<netconvertConfiguration xmlns:xsi="http://www.w3.org/2001/XMLSchema-instance" xsi:noNamespaceSchemaLocation="http://sumo.dlr.de/xsd/netconvertConfiguration.xsd">

    <input>
        <node-files value="C:\Users\24924\Desktop\智能运输系统设计与集成综合实验\algorithm\sumo\real_network.nod.xml"/>
        <edge-files value="C:\Users\24924\Desktop\智能运输系统设计与集成综合实验\algorithm\sumo\real_network.edg.xml"/>
    </input>

    <output>
        <output-file value="C:\Users\24924\Desktop\智能运输系统设计与集成综合实验\algorithm\sumo\real_network.net.xml"/>
    </output>

    <processing>
        <geometry.min-radius value="5.0"/>
        <geometry.max-grade value="0.08"/>
    </processing>

</netconvertConfiguration>
-->

<net version="1.20" junctionCornerDetail="5" limitTurnSpeed="5.50" xmlns:xsi="http://www.w3.org/2001/XMLSchema-instance" xsi:noNamespaceSchemaLocation="http://sumo.dlr.de/xsd/net_file.xsd">

    <location netOffset="683.00,575.00" convBoundary="0.00,0.00,1409.00,1238.00" origBoundary="-683.00,-575.00,726.00,663.00" projParameter="!"/>

    <edge id=":N00_0" function="internal">
        <lane id=":N00_0_0" index="0" speed="8.96" length="18.06" shape="-4.80,6.40 -4.10,1.50 -2.00,-2.00 1.50,-4.10 6.40,-4.80"/>
        <lane id=":N00_0_1" index="1" speed="7.66" length="12.90" shape="-1.60,6.40 -1.10,2.90 0.40,0.40 2.90,-1.10 6.40,-1.60"/>
    </edge>
    <edge id=":N00_2" function="internal">
        <lane id=":N00_2_0" index="0" speed="3.90" length="2.58" shape="6.40,4.80 5.70,4.90 5.20,5.20 4.90,5.70 4.80,6.40"/>
        <lane id=":N00_2_1" index="1" speed="6.08" length="7.74" shape="6.40,1.60 4.30,1.90 2.80,2.80 1.90,4.30 1.60,6.40"/>
    </edge>
    <edge id=":N01_0" function="internal">
        <lane id=":N01_0_0" index="0" speed="6.51" length="9.03" shape="379.20,10.40 378.85,7.95 377.80,6.20 376.05,5.15 373.60,4.80"/>
        <lane id=":N01_0_1" index="1" speed="8.00" length="14.19" shape="382.40,10.40 381.85,6.55 380.20,3.80 377.45,2.15 373.60,1.60"/>
    </edge>
    <edge id=":N01_2" function="internal">
        <lane id=":N01_2_0" index="0" speed="9.26" length="19.35" shape="382.40,10.40 383.15,5.15 385.40,1.40 389.15,-0.85 394.40,-1.60"/>
    </edge>
    <edge id=":N01_3" function="internal">
        <lane id=":N01_3_0" index="0" speed="3.65" length="4.67" shape="382.40,10.40 383.20,9.20 384.00,8.80 384.80,9.20 385.60,10.40"/>
    </edge>
    <edge id=":N01_4" function="internal">
        <lane id=":N01_4_0" index="0" speed="6.51" length="9.03" shape="394.40,4.80 391.95,5.15 390.20,6.20 389.15,7.95 388.80,10.40"/>
    </edge>
    <edge id=":N01_5" function="internal">
        <lane id=":N01_5_0" index="0" speed="11.11" length="20.80" shape="394.40,4.80 373.60,4.80"/>
        <lane id=":N01_5_1" index="1" speed="11.11" length="20.80" shape="394.40,1.60 373.60,1.60"/>
    </edge>
    <edge id=":N01_7" function="internal">
        <lane id=":N01_7_0" index="0" speed="3.65" length="4.67" shape="394.40,1.60 393.20,0.80 392.80,0.00 393.20,-0.80 394.40,-1.60"/>
    </edge>
    <edge id=":N01_8" function="internal">
        <lane id=":N01_8_0" index="0" speed="11.11" length="20.80" shape="373.60,-4.80 394.40,-4.80"/>
        <lane id=":N01_8_1" index="1" speed="11.11" length="20.80" shape="373.60,-1.60 394.40,-1.60"/>
    </edge>
    <edge id=":N01_10" function="internal">
        <lane id=":N01_10_0" index="0" speed="9.26" length="19.35" shape="373.60,-1.60 378.85,-0.85 382.60,1.40 384.85,5.15 385.60,10.40"/>
    </edge>
    <edge id=":N01_11" function="internal">
        <lane id=":N01_11_0" index="0" speed="3.65" length="4.67" shape="373.60,-1.60 374.80,-0.80 375.20,0.00 374.80,0.80 373.60,1.60"/>
    </edge>
    <edge id=":N02_0" function="internal">
        <lane id=":N02_0_0" index="0" speed="6.51" length="9.03" shape="803.00,10.40 802.65,7.95 801.60,6.20 799.85,5.15 797.40,4.80"/>
        <lane id=":N02_0_1" index="1" speed="8.00" length="14.19" shape="806.20,10.40 805.65,6.55 804.00,3.80 801.25,2.15 797.40,1.60"/>
    </edge>
    <edge id=":N02_2" function="internal">
        <lane id=":N02_2_0" index="0" speed="9.84" length="21.99" shape="809.40,10.40 810.35,5.15 813.20,1.40 817.95,-0.85 824.60,-1.60"/>
    </edge>
    <edge id=":N02_3" function="internal">
        <lane id=":N02_3_0" index="0" speed="3.65" length="4.67" shape="809.40,10.40 810.20,9.20 811.00,8.80 811.80,9.20 812.60,10.40"/>
    </edge>
    <edge id=":N02_4" function="internal">
        <lane id=":N02_4_0" index="0" speed="6.51" length="9.03" shape="824.60,4.80 822.15,5.15 820.40,6.20 819.35,7.95 819.00,10.40"/>
        <lane id=":N02_4_1" index="1" speed="8.00" length="14.19" shape="824.60,1.60 820.75,2.15 818.00,3.80 816.35,6.55 815.80,10.40"/>
    </edge>
    <edge id=":N02_6" function="internal">
        <lane id=":N02_6_0" index="0" speed="11.11" length="27.31" shape="824.60,1.60 817.54,2.10 811.00,3.20 804.46,4.30 797.40,4.80"/>
        <lane id=":N02_6_1" index="1" speed="11.11" length="27.31" shape="824.60,1.60 797.40,1.60"/>
    </edge>
    <edge id=":N02_8" function="internal">
        <lane id=":N02_8_0" index="0" speed="3.65" length="4.67" shape="824.60,1.60 823.40,0.80 823.00,0.00 823.40,-0.80 824.60,-1.60"/>
    </edge>
    <edge id=":N02_9" function="internal">
        <lane id=":N02_9_0" index="0" speed="11.11" length="27.20" shape="797.40,-4.80 824.60,-4.80"/>
        <lane id=":N02_9_1" index="1" speed="11.11" length="27.20" shape="797.40,-1.60 824.60,-1.60"/>
    </edge>
    <edge id=":N02_11" function="internal">
        <lane id=":N02_11_0" index="0" speed="10.41" length="24.73" shape="797.40,-1.60 805.45,-0.85 811.20,1.40 814.65,5.15 815.80,10.40"/>
        <lane id=":N02_11_1" index="1" speed="9.84" length="21.99" shape="797.40,-1.60 804.05,-0.85 808.80,1.40 811.65,5.15 812.60,10.40"/>
    </edge>
    <edge id=":N02_13" function="internal">
        <lane id=":N02_13_0" index="0" speed="3.65" length="4.67" shape="797.40,-1.60 798.60,-0.80 799.00,0.00 798.60,0.80 797.40,1.60"/>
    </edge>
    <edge id=":N03_0" function="internal">
        <lane id=":N03_0_0" index="0" speed="6.51" length="9.03" shape="1105.20,10.40 1104.85,7.95 1103.80,6.20 1102.05,5.15 1099.60,4.80"/>
        <lane id=":N03_0_1" index="1" speed="8.00" length="14.19" shape="1108.40,10.40 1107.85,6.55 1106.20,3.80 1103.45,2.15 1099.60,1.60"/>
    </edge>
    <edge id=":N03_2" function="internal">
        <lane id=":N03_2_0" index="0" speed="9.26" length="19.35" shape="1108.40,10.40 1109.15,5.15 1111.40,1.40 1115.15,-0.85 1120.40,-1.60"/>
    </edge>
    <edge id=":N03_3" function="internal">
        <lane id=":N03_3_0" index="0" speed="3.65" length="4.67" shape="1108.40,10.40 1109.20,9.20 1110.00,8.80 1110.80,9.20 1111.60,10.40"/>
    </edge>
    <edge id=":N03_4" function="internal">
        <lane id=":N03_4_0" index="0" speed="6.51" length="9.03" shape="1120.40,4.80 1117.95,5.15 1116.20,6.20 1115.15,7.95 1114.80,10.40"/>
    </edge>
    <edge id=":N03_5" function="internal">
        <lane id=":N03_5_0" index="0" speed="11.11" length="20.80" shape="1120.40,4.80 1099.60,4.80"/>
        <lane id=":N03_5_1" index="1" speed="11.11" length="20.80" shape="1120.40,1.60 1099.60,1.60"/>
    </edge>
    <edge id=":N03_7" function="internal">
        <lane id=":N03_7_0" index="0" speed="3.65" length="4.67" shape="1120.40,1.60 1119.20,0.80 1118.80,0.00 1119.20,-0.80 1120.40,-1.60"/>
    </edge>
    <edge id=":N03_8" function="internal">
        <lane id=":N03_8_0" index="0" speed="11.11" length="20.80" shape="1099.60,-4.80 1120.40,-4.80"/>
        <lane id=":N03_8_1" index="1" speed="11.11" length="20.80" shape="1099.60,-1.60 1120.40,-1.60"/>
    </edge>
    <edge id=":N03_10" function="internal">
        <lane id=":N03_10_0" index="0" speed="9.26" length="19.35" shape="1099.60,-1.60 1104.85,-0.85 1108.60,1.40 1110.85,5.15 1111.60,10.40"/>
    </edge>
    <edge id=":N03_11" function="internal">
        <lane id=":N03_11_0" index="0" speed="3.65" length="4.67" shape="1099.60,-1.60 1100.80,-0.80 1101.20,0.00 1100.80,0.80 1099.60,1.60"/>
    </edge>
    <edge id=":N04_0" function="internal">
        <lane id=":N04_0_0" index="0" speed="3.90" length="2.58" shape="1404.20,6.40 1404.10,5.70 1403.80,5.20 1403.30,4.90 1402.60,4.80"/>
        <lane id=":N04_0_1" index="1" speed="6.08" length="7.74" shape="1407.40,6.40 1407.10,4.30 1406.20,2.80 1404.70,1.90 1402.60,1.60"/>
    </edge>
    <edge id=":N04_2" function="internal">
        <lane id=":N04_2_0" index="0" speed="8.96" length="18.06" shape="1402.60,-4.80 1407.50,-4.10 1411.00,-2.00 1413.10,1.50 1413.80,6.40"/>
        <lane id=":N04_2_1" index="1" speed="7.66" length="12.90" shape="1402.60,-1.60 1406.10,-1.10 1408.60,0.40 1410.10,2.90 1410.60,6.40"/>
    </edge>
    <edge id=":N10_0" function="internal">
        <lane id=":N10_0_0" index="0" speed="11.11" length="20.80" shape="-4.80,231.40 -4.80,210.60"/>
        <lane id=":N10_0_1" index="1" speed="11.11" length="20.80" shape="-1.60,231.40 -1.60,210.60"/>
    </edge>
    <edge id=":N10_2" function="internal">
        <lane id=":N10_2_0" index="0" speed="9.26" length="19.35" shape="-1.60,231.40 -0.85,226.15 1.40,222.40 5.15,220.15 10.40,219.40"/>
    </edge>
    <edge id=":N10_3" function="internal">
        <lane id=":N10_3_0" index="0" speed="3.65" length="4.67" shape="-1.60,231.40 -0.80,230.20 0.00,229.80 0.80,230.20 1.60,231.40"/>
    </edge>
    <edge id=":N10_4" function="internal">
        <lane id=":N10_4_0" index="0" speed="6.51" length="9.03" shape="10.40,225.80 7.95,226.15 6.20,227.20 5.15,228.95 4.80,231.40"/>
        <lane id=":N10_4_1" index="1" speed="8.00" length="14.19" shape="10.40,222.60 6.55,223.15 3.80,224.80 2.15,227.55 1.60,231.40"/>
    </edge>
    <edge id=":N10_6" function="internal">
        <lane id=":N10_6_0" index="0" speed="9.26" length="19.35" shape="10.40,222.60 5.15,221.85 1.40,219.60 -0.85,215.85 -1.60,210.60"/>
    </edge>
    <edge id=":N10_7" function="internal">
        <lane id=":N10_7_0" index="0" speed="3.65" length="4.67" shape="10.40,222.60 9.20,221.80 8.80,221.00 9.20,220.20 10.40,219.40"/>
    </edge>
    <edge id=":N10_8" function="internal">
        <lane id=":N10_8_0" index="0" speed="6.51" length="9.03" shape="4.80,210.60 5.15,213.05 6.20,214.80 7.95,215.85 10.40,216.20"/>
    </edge>
    <edge id=":N10_9" function="internal">
        <lane id=":N10_9_0" index="0" speed="11.11" length="20.80" shape="4.80,210.60 4.80,231.40"/>
        <lane id=":N10_9_1" index="1" speed="11.11" length="20.80" shape="1.60,210.60 1.60,231.40"/>
    </edge>
    <edge id=":N10_11" function="internal">
        <lane id=":N10_11_0" index="0" speed="3.65" length="4.67" shape="1.60,210.60 0.80,211.80 0.00,212.20 -0.80,211.80 -1.60,210.60"/>
    </edge>
    <edge id=":N11_0" function="internal">
        <lane id=":N11_0_0" index="0" speed="6.51" length="9.03" shape="379.20,231.40 378.85,228.95 377.80,227.20 376.05,226.15 373.60,225.80"/>
    </edge>
    <edge id=":N11_1" function="internal">
        <lane id=":N11_1_0" index="0" speed="11.11" length="20.80" shape="379.20,231.40 379.20,210.60"/>
        <lane id=":N11_1_1" index="1" speed="11.11" length="20.80" shape="382.40,231.40 382.40,210.60"/>
    </edge>
    <edge id=":N11_3" function="internal">
        <lane id=":N11_3_0" index="0" speed="9.26" length="19.35" shape="382.40,231.40 383.15,226.15 385.40,222.40 389.15,220.15 394.40,219.40"/>
    </edge>
    <edge id=":N11_4" function="internal">
        <lane id=":N11_4_0" index="0" speed="3.65" length="4.67" shape="382.40,231.40 383.20,230.20 384.00,229.80 384.80,230.20 385.60,231.40"/>
    </edge>
    <edge id=":N11_5" function="internal">
        <lane id=":N11_5_0" index="0" speed="6.51" length="9.03" shape="394.40,225.80 391.95,226.15 390.20,227.20 389.15,228.95 388.80,231.40"/>
    </edge>
    <edge id=":N11_6" function="internal">
        <lane id=":N11_6_0" index="0" speed="11.11" length="20.80" shape="394.40,225.80 373.60,225.80"/>
        <lane id=":N11_6_1" index="1" speed="11.11" length="20.80" shape="394.40,222.60 373.60,222.60"/>
    </edge>
    <edge id=":N11_8" function="internal">
        <lane id=":N11_8_0" index="0" speed="9.26" length="19.35" shape="394.40,222.60 389.15,221.85 385.40,219.60 383.15,215.85 382.40,210.60"/>
    </edge>
    <edge id=":N11_9" function="internal">
        <lane id=":N11_9_0" index="0" speed="3.65" length="4.67" shape="394.40,222.60 393.20,221.80 392.80,221.00 393.20,220.20 394.40,219.40"/>
    </edge>
    <edge id=":N11_10" function="internal">
        <lane id=":N11_10_0" index="0" speed="6.51" length="9.03" shape="388.80,210.60 389.15,213.05 390.20,214.80 391.95,215.85 394.40,216.20"/>
    </edge>
    <edge id=":N11_11" function="internal">
        <lane id=":N11_11_0" index="0" speed="11.11" length="20.80" shape="388.80,210.60 388.80,231.40"/>
        <lane id=":N11_11_1" index="1" speed="11.11" length="20.80" shape="385.60,210.60 385.60,231.40"/>
    </edge>
    <edge id=":N11_13" function="internal">
        <lane id=":N11_13_0" index="0" speed="9.26" length="19.35" shape="385.60,210.60 384.85,215.85 382.60,219.60 378.85,221.85 373.60,222.60"/>
    </edge>
    <edge id=":N11_14" function="internal">
        <lane id=":N11_14_0" index="0" speed="3.65" length="4.67" shape="385.60,210.60 384.80,211.80 384.00,212.20 383.20,211.80 382.40,210.60"/>
    </edge>
    <edge id=":N11_15" function="internal">
        <lane id=":N11_15_0" index="0" speed="6.51" length="9.03" shape="373.60,216.20 376.05,215.85 377.80,214.80 378.85,213.05 379.20,210.60"/>
    </edge>
    <edge id=":N11_16" function="internal">
        <lane id=":N11_16_0" index="0" speed="11.11" length="20.80" shape="373.60,216.20 394.40,216.20"/>
        <lane id=":N11_16_1" index="1" speed="11.11" length="20.80" shape="373.60,219.40 394.40,219.40"/>
    </edge>
    <edge id=":N11_18" function="internal">
        <lane id=":N11_18_0" index="0" speed="9.26" length="19.35" shape="373.60,219.40 378.85,220.15 382.60,222.40 384.85,226.15 385.60,231.40"/>
    </edge>
    <edge id=":N11_19" function="internal">
        <lane id=":N11_19_0" index="0" speed="3.65" length="4.67" shape="373.60,219.40 374.80,220.20 375.20,221.00 374.80,221.80 373.60,222.60"/>
    </edge>
    <edge id=":N12_0" function="internal">
        <lane id=":N12_0_0" index="0" speed="6.51" length="9.03" shape="803.00,231.40 802.65,228.95 801.60,227.20 799.85,226.15 797.40,225.80"/>
    </edge>
    <edge id=":N12_1" function="internal">
        <lane id=":N12_1_0" index="0" speed="16.67" length="20.80" shape="803.00,231.40 803.00,210.60"/>
        <lane id=":N12_1_1" index="1" speed="16.67" length="20.80" shape="806.20,231.40 806.20,210.60"/>
        <lane id=":N12_1_2" index="2" speed="16.67" length="20.80" shape="809.40,231.40 809.40,210.60"/>
    </edge>
    <edge id=":N12_4" function="internal">
        <lane id=":N12_4_0" index="0" speed="9.84" length="4.01" shape="809.40,231.40 810.11,227.45"/>
    </edge>
    <edge id=":N12_5" function="internal">
        <lane id=":N12_5_0" index="0" speed="3.65" length="1.44" shape="809.40,231.40 810.20,230.20"/>
    </edge>
    <edge id=":N12_22" function="internal">
        <lane id=":N12_22_0" index="0" speed="9.84" length="17.98" shape="810.11,227.45 810.35,226.15 813.20,222.40 817.95,220.15 824.60,219.40"/>
    </edge>
    <edge id=":N12_23" function="internal">
        <lane id=":N12_23_0" index="0" speed="3.65" length="3.23" shape="810.20,230.20 811.00,229.80 811.80,230.20 812.60,231.40"/>
    </edge>
    <edge id=":N12_6" function="internal">
        <lane id=":N12_6_0" index="0" speed="6.51" length="9.03" shape="824.60,225.80 822.15,226.15 820.40,227.20 819.35,228.95 819.00,231.40"/>
    </edge>
    <edge id=":N12_7" function="internal">
        <lane id=":N12_7_0" index="0" speed="11.11" length="27.20" shape="824.60,225.80 797.40,225.80"/>
        <lane id=":N12_7_1" index="1" speed="11.11" length="27.20" shape="824.60,222.60 797.40,222.60"/>
    </edge>
    <edge id=":N12_9" function="internal">
        <lane id=":N12_9_0" index="0" speed="9.84" length="21.99" shape="824.60,222.60 817.95,221.85 813.20,219.60 810.35,215.85 809.40,210.60"/>
    </edge>
    <edge id=":N12_10" function="internal">
        <lane id=":N12_10_0" index="0" speed="3.65" length="4.67" shape="824.60,222.60 823.40,221.80 823.00,221.00 823.40,220.20 824.60,219.40"/>
    </edge>
    <edge id=":N12_11" function="internal">
        <lane id=":N12_11_0" index="0" speed="6.51" length="9.03" shape="819.00,210.60 819.35,213.05 820.40,214.80 822.15,215.85 824.60,216.20"/>
    </edge>
    <edge id=":N12_12" function="internal">
        <lane id=":N12_12_0" index="0" speed="16.67" length="20.80" shape="819.00,210.60 819.00,231.40"/>
        <lane id=":N12_12_1" index="1" speed="16.67" length="20.80" shape="815.80,210.60 815.80,231.40"/>
        <lane id=":N12_12_2" index="2" speed="16.67" length="20.80" shape="812.60,210.60 812.60,231.40"/>
    </edge>
    <edge id=":N12_15" function="internal">
        <lane id=":N12_15_0" index="0" speed="9.84" length="4.01" shape="812.60,210.60 811.89,214.55"/>
    </edge>
    <edge id=":N12_16" function="internal">
        <lane id=":N12_16_0" index="0" speed="3.65" length="1.44" shape="812.60,210.60 811.80,211.80"/>
    </edge>
    <edge id=":N12_24" function="internal">
        <lane id=":N12_24_0" index="0" speed="9.84" length="17.98" shape="811.89,214.55 811.65,215.85 808.80,219.60 804.05,221.85 797.40,222.60"/>
    </edge>
    <edge id=":N12_25" function="internal">
        <lane id=":N12_25_0" index="0" speed="3.65" length="3.23" shape="811.80,211.80 811.00,212.20 810.20,211.80 809.40,210.60"/>
    </edge>
    <edge id=":N12_17" function="internal">
        <lane id=":N12_17_0" index="0" speed="6.51" length="9.03" shape="797.40,216.20 799.85,215.85 801.60,214.80 802.65,213.05 803.00,210.60"/>
    </edge>
    <edge id=":N12_18" function="internal">
        <lane id=":N12_18_0" index="0" speed="11.11" length="27.20" shape="797.40,216.20 824.60,216.20"/>
        <lane id=":N12_18_1" index="1" speed="11.11" length="27.20" shape="797.40,219.40 824.60,219.40"/>
    </edge>
    <edge id=":N12_20" function="internal">
        <lane id=":N12_20_0" index="0" speed="9.84" length="21.99" shape="797.40,219.40 804.05,220.15 808.80,222.40 811.65,226.15 812.60,231.40"/>
    </edge>
    <edge id=":N12_21" function="internal">
        <lane id=":N12_21_0" index="0" speed="3.65" length="4.67" shape="797.40,219.40 798.60,220.20 799.00,221.00 798.60,221.80 797.40,222.60"/>
    </edge>
    <edge id=":N13_0" function="internal">
        <lane id=":N13_0_0" index="0" speed="6.51" length="9.03" shape="1105.20,231.40 1104.85,228.95 1103.80,227.20 1102.05,226.15 1099.60,225.80"/>
    </edge>
    <edge id=":N13_1" function="internal">
        <lane id=":N13_1_0" index="0" speed="11.11" length="20.80" shape="1105.20,231.40 1105.20,210.60"/>
        <lane id=":N13_1_1" index="1" speed="11.11" length="20.80" shape="1108.40,231.40 1108.40,210.60"/>
    </edge>
    <edge id=":N13_3" function="internal">
        <lane id=":N13_3_0" index="0" speed="9.26" length="19.35" shape="1108.40,231.40 1109.15,226.15 1111.40,222.40 1115.15,220.15 1120.40,219.40"/>
    </edge>
    <edge id=":N13_4" function="internal">
        <lane id=":N13_4_0" index="0" speed="3.65" length="4.67" shape="1108.40,231.40 1109.20,230.20 1110.00,229.80 1110.80,230.20 1111.60,231.40"/>
    </edge>
    <edge id=":N13_5" function="internal">
        <lane id=":N13_5_0" index="0" speed="6.51" length="9.03" shape="1120.40,225.80 1117.95,226.15 1116.20,227.20 1115.15,228.95 1114.80,231.40"/>
    </edge>
    <edge id=":N13_6" function="internal">
        <lane id=":N13_6_0" index="0" speed="11.11" length="20.80" shape="1120.40,225.80 1099.60,225.80"/>
        <lane id=":N13_6_1" index="1" speed="11.11" length="20.80" shape="1120.40,222.60 1099.60,222.60"/>
    </edge>
    <edge id=":N13_8" function="internal">
        <lane id=":N13_8_0" index="0" speed="9.26" length="19.35" shape="1120.40,222.60 1115.15,221.85 1111.40,219.60 1109.15,215.85 1108.40,210.60"/>
    </edge>
    <edge id=":N13_9" function="internal">
        <lane id=":N13_9_0" index="0" speed="3.65" length="4.67" shape="1120.40,222.60 1119.20,221.80 1118.80,221.00 1119.20,220.20 1120.40,219.40"/>
    </edge>
    <edge id=":N13_10" function="internal">
        <lane id=":N13_10_0" index="0" speed="6.51" length="9.03" shape="1114.80,210.60 1115.15,213.05 1116.20,214.80 1117.95,215.85 1120.40,216.20"/>
    </edge>
    <edge id=":N13_11" function="internal">
        <lane id=":N13_11_0" index="0" speed="11.11" length="20.80" shape="1114.80,210.60 1114.80,231.40"/>
        <lane id=":N13_11_1" index="1" speed="11.11" length="20.80" shape="1111.60,210.60 1111.60,231.40"/>
    </edge>
    <edge id=":N13_13" function="internal">
        <lane id=":N13_13_0" index="0" speed="9.26" length="19.35" shape="1111.60,210.60 1110.85,215.85 1108.60,219.60 1104.85,221.85 1099.60,222.60"/>
    </edge>
    <edge id=":N13_14" function="internal">
        <lane id=":N13_14_0" index="0" speed="3.65" length="4.67" shape="1111.60,210.60 1110.80,211.80 1110.00,212.20 1109.20,211.80 1108.40,210.60"/>
    </edge>
    <edge id=":N13_15" function="internal">
        <lane id=":N13_15_0" index="0" speed="6.51" length="9.03" shape="1099.60,216.20 1102.05,215.85 1103.80,214.80 1104.85,213.05 1105.20,210.60"/>
    </edge>
    <edge id=":N13_16" function="internal">
        <lane id=":N13_16_0" index="0" speed="11.11" length="20.80" shape="1099.60,216.20 1120.40,216.20"/>
        <lane id=":N13_16_1" index="1" speed="11.11" length="20.80" shape="1099.60,219.40 1120.40,219.40"/>
    </edge>
    <edge id=":N13_18" function="internal">
        <lane id=":N13_18_0" index="0" speed="9.26" length="19.35" shape="1099.60,219.40 1104.85,220.15 1108.60,222.40 1110.85,226.15 1111.60,231.40"/>
    </edge>
    <edge id=":N13_19" function="internal">
        <lane id=":N13_19_0" index="0" speed="3.65" length="4.67" shape="1099.60,219.40 1100.80,220.20 1101.20,221.00 1100.80,221.80 1099.60,222.60"/>
    </edge>
    <edge id=":N14_0" function="internal">
        <lane id=":N14_0_0" index="0" speed="6.51" length="9.03" shape="1404.20,231.40 1403.85,228.95 1402.80,227.20 1401.05,226.15 1398.60,225.80"/>
    </edge>
    <edge id=":N14_1" function="internal">
        <lane id=":N14_1_0" index="0" speed="11.11" length="20.80" shape="1404.20,231.40 1404.20,210.60"/>
        <lane id=":N14_1_1" index="1" speed="11.11" length="20.80" shape="1407.40,231.40 1407.40,210.60"/>
    </edge>
    <edge id=":N14_3" function="internal">
        <lane id=":N14_3_0" index="0" speed="3.65" length="4.67" shape="1407.40,231.40 1408.20,230.20 1409.00,229.80 1409.80,230.20 1410.60,231.40"/>
    </edge>
    <edge id=":N14_4" function="internal">
        <lane id=":N14_4_0" index="0" speed="11.11" length="20.80" shape="1413.80,210.60 1413.80,231.40"/>
        <lane id=":N14_4_1" index="1" speed="11.11" length="20.80" shape="1410.60,210.60 1410.60,231.40"/>
    </edge>
    <edge id=":N14_6" function="internal">
        <lane id=":N14_6_0" index="0" speed="9.26" length="19.35" shape="1410.60,210.60 1409.85,215.85 1407.60,219.60 1403.85,221.85 1398.60,222.60"/>
    </edge>
    <edge id=":N14_7" function="internal">
        <lane id=":N14_7_0" index="0" speed="3.65" length="4.67" shape="1410.60,210.60 1409.80,211.80 1409.00,212.20 1408.20,211.80 1407.40,210.60"/>
    </edge>
    <edge id=":N14_8" function="internal">
        <lane id=":N14_8_0" index="0" speed="6.51" length="9.03" shape="1398.60,216.20 1401.05,215.85 1402.80,214.80 1403.85,213.05 1404.20,210.60"/>
        <lane id=":N14_8_1" index="1" speed="8.00" length="14.19" shape="1398.60,219.40 1402.45,218.85 1405.20,217.20 1406.85,214.45 1407.40,210.60"/>
    </edge>
    <edge id=":N14_10" function="internal">
        <lane id=":N14_10_0" index="0" speed="9.26" length="19.35" shape="1398.60,219.40 1403.85,220.15 1407.60,222.40 1409.85,226.15 1410.60,231.40"/>
    </edge>
    <edge id=":N14_11" function="internal">
        <lane id=":N14_11_0" index="0" speed="3.65" length="4.67" shape="1398.60,219.40 1399.80,220.20 1400.20,221.00 1399.80,221.80 1398.60,222.60"/>
    </edge>
    <edge id=":N20_0" function="internal">
        <lane id=":N20_0_0" index="0" speed="11.11" length="20.80" shape="-4.80,419.40 -4.80,398.60"/>
        <lane id=":N20_0_1" index="1" speed="11.11" length="20.80" shape="-1.60,419.40 -1.60,398.60"/>
    </edge>
    <edge id=":N20_2" function="internal">
        <lane id=":N20_2_0" index="0" speed="9.26" length="19.35" shape="-1.60,419.40 -0.85,414.15 1.40,410.40 5.15,408.15 10.40,407.40"/>
    </edge>
    <edge id=":N20_3" function="internal">
        <lane id=":N20_3_0" index="0" speed="3.65" length="4.67" shape="-1.60,419.40 -0.80,418.20 0.00,417.80 0.80,418.20 1.60,419.40"/>
    </edge>
    <edge id=":N20_4" function="internal">
        <lane id=":N20_4_0" index="0" speed="6.51" length="9.03" shape="10.40,413.80 7.95,414.15 6.20,415.20 5.15,416.95 4.80,419.40"/>
        <lane id=":N20_4_1" index="1" speed="8.00" length="14.19" shape="10.40,410.60 6.55,411.15 3.80,412.80 2.15,415.55 1.60,419.40"/>
    </edge>
    <edge id=":N20_6" function="internal">
        <lane id=":N20_6_0" index="0" speed="9.26" length="19.35" shape="10.40,410.60 5.15,409.85 1.40,407.60 -0.85,403.85 -1.60,398.60"/>
    </edge>
    <edge id=":N20_7" function="internal">
        <lane id=":N20_7_0" index="0" speed="3.65" length="4.67" shape="10.40,410.60 9.20,409.80 8.80,409.00 9.20,408.20 10.40,407.40"/>
    </edge>
    <edge id=":N20_8" function="internal">
        <lane id=":N20_8_0" index="0" speed="6.51" length="9.03" shape="4.80,398.60 5.15,401.05 6.20,402.80 7.95,403.85 10.40,404.20"/>
    </edge>
    <edge id=":N20_9" function="internal">
        <lane id=":N20_9_0" index="0" speed="11.11" length="20.80" shape="4.80,398.60 4.80,419.40"/>
        <lane id=":N20_9_1" index="1" speed="11.11" length="20.80" shape="1.60,398.60 1.60,419.40"/>
    </edge>
    <edge id=":N20_11" function="internal">
        <lane id=":N20_11_0" index="0" speed="3.65" length="4.67" shape="1.60,398.60 0.80,399.80 0.00,400.20 -0.80,399.80 -1.60,398.60"/>
    </edge>
    <edge id=":N21_0" function="internal">
        <lane id=":N21_0_0" index="0" speed="6.51" length="9.03" shape="379.20,419.40 378.85,416.95 377.80,415.20 376.05,414.15 373.60,413.80"/>
    </edge>
    <edge id=":N21_1" function="internal">
        <lane id=":N21_1_0" index="0" speed="11.11" length="20.80" shape="379.20,419.40 379.20,398.60"/>
        <lane id=":N21_1_1" index="1" speed="11.11" length="20.80" shape="382.40,419.40 382.40,398.60"/>
    </edge>
    <edge id=":N21_3" function="internal">
        <lane id=":N21_3_0" index="0" speed="9.26" length="19.35" shape="382.40,419.40 383.15,414.15 385.40,410.40 389.15,408.15 394.40,407.40"/>
    </edge>
    <edge id=":N21_4" function="internal">
        <lane id=":N21_4_0" index="0" speed="3.65" length="4.67" shape="382.40,419.40 383.20,418.20 384.00,417.80 384.80,418.20 385.60,419.40"/>
    </edge>
    <edge id=":N21_5" function="internal">
        <lane id=":N21_5_0" index="0" speed="6.51" length="9.03" shape="394.40,413.80 391.95,414.15 390.20,415.20 389.15,416.95 388.80,419.40"/>
    </edge>
    <edge id=":N21_6" function="internal">
        <lane id=":N21_6_0" index="0" speed="11.11" length="20.80" shape="394.40,413.80 373.60,413.80"/>
        <lane id=":N21_6_1" index="1" speed="11.11" length="20.80" shape="394.40,410.60 373.60,410.60"/>
    </edge>
    <edge id=":N21_8" function="internal">
        <lane id=":N21_8_0" index="0" speed="9.26" length="19.35" shape="394.40,410.60 389.15,409.85 385.40,407.60 383.15,403.85 382.40,398.60"/>
    </edge>
    <edge id=":N21_9" function="internal">
        <lane id=":N21_9_0" index="0" speed="3.65" length="4.67" shape="394.40,410.60 393.20,409.80 392.80,409.00 393.20,408.20 394.40,407.40"/>
    </edge>
    <edge id=":N21_10" function="internal">
        <lane id=":N21_10_0" index="0" speed="6.51" length="9.03" shape="388.80,398.60 389.15,401.05 390.20,402.80 391.95,403.85 394.40,404.20"/>
    </edge>
    <edge id=":N21_11" function="internal">
        <lane id=":N21_11_0" index="0" speed="11.11" length="20.80" shape="388.80,398.60 388.80,419.40"/>
        <lane id=":N21_11_1" index="1" speed="11.11" length="20.80" shape="385.60,398.60 385.60,419.40"/>
    </edge>
    <edge id=":N21_13" function="internal">
        <lane id=":N21_13_0" index="0" speed="9.26" length="19.35" shape="385.60,398.60 384.85,403.85 382.60,407.60 378.85,409.85 373.60,410.60"/>
    </edge>
    <edge id=":N21_14" function="internal">
        <lane id=":N21_14_0" index="0" speed="3.65" length="4.67" shape="385.60,398.60 384.80,399.80 384.00,400.20 383.20,399.80 382.40,398.60"/>
    </edge>
    <edge id=":N21_15" function="internal">
        <lane id=":N21_15_0" index="0" speed="6.51" length="9.03" shape="373.60,404.20 376.05,403.85 377.80,402.80 378.85,401.05 379.20,398.60"/>
    </edge>
    <edge id=":N21_16" function="internal">
        <lane id=":N21_16_0" index="0" speed="11.11" length="20.80" shape="373.60,404.20 394.40,404.20"/>
        <lane id=":N21_16_1" index="1" speed="11.11" length="20.80" shape="373.60,407.40 394.40,407.40"/>
    </edge>
    <edge id=":N21_18" function="internal">
        <lane id=":N21_18_0" index="0" speed="9.26" length="19.35" shape="373.60,407.40 378.85,408.15 382.60,410.40 384.85,414.15 385.60,419.40"/>
    </edge>
    <edge id=":N21_19" function="internal">
        <lane id=":N21_19_0" index="0" speed="3.65" length="4.67" shape="373.60,407.40 374.80,408.20 375.20,409.00 374.80,409.80 373.60,410.60"/>
    </edge>
    <edge id=":N22_0" function="internal">
        <lane id=":N22_0_0" index="0" speed="6.51" length="9.03" shape="803.00,419.40 802.65,416.95 801.60,415.20 799.85,414.15 797.40,413.80"/>
    </edge>