<?xml version="1.0" encoding="UTF-8"?>
<nodes xmlns:xsi="http://www.w3.org/2001/XMLSchema-instance"
       xsi:noNamespaceSchemaLocation="http://sumo.dlr.de/xsd/nodes_file.xsd">

    <!-- ===== 北京国贸CBD区域真实路口节点 =====
         坐标系: 近似笛卡尔 (参考点 116.46°E, 39.908°N 为原点)
         范围: 约1.4km × 1.2km
         7条东西向道路 × 5条南北向道路 = 35个交叉口

         东西向道路 (从南到北):
           R0: 通惠河北路主路 (39.9028)
           R1: 通惠河北路辅路 (39.9048)
           R2: 景辉街 (39.9065)
           R3: 建国路 (39.9080)
           R4: 景华街 (39.9095)
           R5: 光华路 (39.9113)
           R6: 光华北路 (39.9140)

         南北向道路 (从西到东):
           C0: 东大桥路 (116.4520)
           C1: 金桐西路 (116.4565)
           C2: 东三环中路 (116.4615)
           C3: 针织路 (116.4650)
           C4: 西大望路 (116.4685)
    ===== -->

    <!-- === R0: 通惠河北路主路 (39.9028) === -->
    <node id="N00" x="-683" y="-575"/>
    <node id="N01" x="-299" y="-575"/>
    <node id="N02" x="128"  y="-575"/>
    <node id="N03" x="427"  y="-575"/>
    <node id="N04" x="726"  y="-575"/>

    <!-- === R1: 通惠河北路辅路 (39.9048) === -->
    <node id="N10" x="-683" y="-354"/>
    <node id="N11" x="-299" y="-354"/>
    <node id="N12" x="128"  y="-354"/>
    <node id="N13" x="427"  y="-354"/>
    <node id="N14" x="726"  y="-354"/>

    <!-- === R2: 景辉街 (39.9065) === -->
    <node id="N20" x="-683" y="-166"/>
    <node id="N21" x="-299" y="-166"/>
    <node id="N22" x="128"  y="-166"/>
    <node id="N23" x="427"  y="-166"/>
    <node id="N24" x="726"  y="-166"/>

    <!-- === R3: 建国路 (39.9080, 主干道) === -->
    <node id="N30" x="-683" y="0"/>
    <node id="N31" x="-299" y="0"/>
    <node id="N32" x="128"  y="0"/>
    <node id="N33" x="427"  y="0"/>
    <node id="N34" x="726"  y="0"/>

    <!-- === R4: 景华街 (39.9095) === -->
    <node id="N40" x="-683" y="166"/>
    <node id="N41" x="-299" y="166"/>
    <node id="N42" x="128"  y="166"/>
    <node id="N43" x="427"  y="166"/>
    <node id="N44" x="726"  y="166"/>

    <!-- === R5: 光华路 (39.9113) === -->
    <node id="N50" x="-683" y="365"/>
    <node id="N51" x="-299" y="365"/>
    <node id="N52" x="128"  y="365"/>
    <node id="N53" x="427"  y="365"/>
    <node id="N54" x="726"  y="365"/>

    <!-- === R6: 光华北路 (39.9140) === -->
    <node id="N60" x="-683" y="663"/>
    <node id="N61" x="-299" y="663"/>
    <node id="N62" x="128"  y="663"/>
    <node id="N63" x="427"  y="663"/>
    <node id="N64" x="726"  y="663"/>

</nodes>
